EPRI_Ckt7_DER_Project/02_Base_Allocated/ckt7_Power_seq_kVA.txt

SYMMETRICAL COMPONENT POWERS BY CIRCUIT ELEMENT (first 3 phases)                                     Excess Power

Element Term    P1(kW)   Q1(kvar)       P2         Q2      P0      Q0       P_Norm      Q_Norm     P_Emerg    Q_Emerg

"Vsource.source"  1   -76483.7   -24106.4        0.0        0.0     0.0     0.0
"Vsource.source"  2        0.0        0.0        0.0        0.0     0.0     0.0
"Transformer.sub1"  1    25494.6     8035.5        0.0        0.0     0.0     0.0        0.0        0.0        0.0        0.0
"Transformer.sub1"  2   -25493.4    -7919.7        0.0        0.0     0.0     0.0
"Transformer.sub2"  1    25494.6     8035.5        0.0        0.0     0.0     0.0        0.0        0.0        0.0        0.0
"Transformer.sub2"  2   -25493.4    -7919.7        0.0        0.0     0.0     0.0
"Transformer.sub3"  1    25494.6     8035.5        0.0        0.0     0.0     0.0        0.0        0.0        0.0        0.0
"Transformer.sub3"  2   -25493.4    -7919.7        0.0        0.0     0.0     0.0
"Line.326"  1        0.0        0.0        0.0        0.0     0.0     0.0        0.0        0.0        0.0        0.0
"Line.326"  2        0.0        0.0        0.0        0.0     0.0     0.0
"Line.333"  1     5473.4      420.1        0.0        0.0     0.0     0.0        0.0        0.0        0.0        0.0
"Line.333"  2    -5473.4     -420.1        0.0        0.0     0.0     0.0
"Line.335"  1        0.0        0.0        0.0        0.0     0.0     0.0        0.0        0.0        0.0        0.0
"Line.335"  2        0.0        0.0        0.0        0.0     0.0     0.0
"Line.150394"  1      -48.3      -23.0        0.0        0.0     0.0     0.0        0.0        0.0        0.0        0.0
"Line.150394"  2       48.3       23.0        0.0        0.0     0.0     0.0
"Line.157109"  1     5396.1      373.9        0.0        0.0    -0.1     0.0        0.0        0.0        0.0        0.0
"Line.157109"  2    -5391.5     -357.1        0.0        0.1     0.1     0.1
"Line.157115"  1     5375.9      344.7        0.0       -0.1    -0.1    -0.2        0.0        0.0        0.0        0.0
"Line.157115"  2    -5369.5     -320.8        0.0        0.1     0.2     0.3
"Line.157116"  1        0.1        0.3        0.0        0.0     0.0     0.0        0.0        0.0        0.0        0.0
"Line.157116"  2       -0.1       -0.3        0.0        0.0     0.0     0.0
"Line.157118"  1      401.7      190.6        0.0        0.0     0.0     0.0        0.0        0.0        0.0        0.0
"Line.157118"  2     -401.7     -190.6        0.0        0.0     0.0     0.0
"Line.157119"  1     5360.7      314.8        0.0       -0.1    -0.2    -0.3        0.0        0.0        0.0        0.0
"Line.157119"  2    -5359.0     -308.5        0.0        0.1     0.2     0.4
"Line.157120"  1      377.3      179.1        0.0        0.0     0.0     0.0        0.0        0.0        0.0        0.0
"Line.157120"  2     -377.3     -179.1        0.0        0.0     0.0     0.0
"Line.157121"  1      -96.3      -45.3        0.0        0.0     0.0     0.0        0.0        0.0        0.0        0.0
"Line.157121"  2       96.3       45.3        0.0        0.0     0.0     0.0
"Line.157122"  1      256.5      122.2        0.0        0.0     0.0     0.0        0.0        0.0        0.0        0.0
"Line.157122"  2     -256.5     -122.2        0.0        0.0     0.0     0.0
"Line.157123"  1       96.3       45.3        0.0        0.0     0.0     0.0        0.0        0.0        0.0        0.0
"Line.157123"  2      -96.3      -45.3        0.0        0.0     0.0     0.0
"Line.157124"  1     -305.5     -144.8        0.0        0.0     0.0     0.0        0.0        0.0        0.0        0.0
"Line.157124"  2      305.5      144.8        0.0        0.0     0.0     0.0
"Line.157126"  1      305.5      144.8        0.0        0.0     0.0     0.0        0.0        0.0        0.0        0.0
"Line.157126"  2     -305.5     -144.8        0.0        0.0     0.0     0.0
"Line.157127"  1      257.3      122.0        0.0        0.0     0.0     0.0        0.0        0.0        0.0        0.0
"Line.157127"  2     -257.2     -122.0        0.0        0.0     0.0     0.0
"Line.157128"  1      257.0      120.6        0.0        0.0     0.0     0.0        0.0        0.0        0.0        0.0
"Line.157128"  2     -256.9     -120.5        0.0        0.0     0.0     0.0
"Line.157129"  1      160.7       74.9        0.0        0.0     0.0     0.0        0.0        0.0        0.0        0.0
"Line.157129"  2     -160.7      -74.9        0.0        0.0     0.0     0.0
"Line.157130"  1      -96.2      -45.7        0.0        0.0     0.0     0.0        0.0        0.0        0.0        0.0
"Line.157130"  2       96.2       45.7        0.0        0.0     0.0     0.0
"Line.157131"  1        0.3        1.4        0.0        0.0     0.0     0.0        0.0        0.0        0.0        0.0
"Line.157131"  2       -0.3       -1.4        0.0        0.0     0.0     0.0
"Line.157132"  1     4627.1      -38.3        0.0       -0.2    -0.2    -0.4     1478.2      -12.4      887.8       -7.5
"Line.157132"  2    -4619.1       42.3        0.0        0.2     0.3     0.5
"Line.157133"  1     4611.4      -45.9        0.0       -0.2    -0.3    -0.4        0.0        0.0        0.0        0.0
"Line.157133"  2    -4611.0       47.5        0.0        0.2     0.3     0.5
"Line.157136"  1      241.2      110.4        0.0        0.0     0.0     0.0        0.0        0.0        0.0        0.0
"Line.157136"  2     -241.2     -110.4        0.0        0.0     0.0     0.0
"Line.157137"  1     -241.2     -110.4        0.0        0.0     0.0     0.0        0.0        0.0        0.0        0.0
"Line.157137"  2      241.2      110.4        0.0        0.0     0.0     0.0
"Line.157138"  1     -241.2     -110.4        0.0        0.0     0.0     0.0        0.0        0.0        0.0        0.0
"Line.157138"  2      241.2      110.4        0.0        0.0     0.0     0.0
"Line.157142"  1     4610.9      -47.6        0.0       -0.2    -0.3    -0.5        0.0        0.0        0.0        0.0
"Line.157142"  2    -4610.5       49.2        0.0        0.2     0.3     0.5
"Line.157143"  1     4293.4     -195.4        0.0       -0.2    -0.3    -0.5        0.0        0.0        0.0        0.0
"Line.157143"  2    -4292.9      197.4        0.0        0.2     0.3     0.5
"Line.157144"  1     4196.2     -244.6        0.0       -0.2    -0.3    -0.5        0.0        0.0        0.0        0.0
"Line.157144"  2    -4195.8      246.0        0.0        0.2     0.3     0.5
"Line.157145"  1     4292.8     -197.7        0.0       -0.2    -0.3    -0.5        0.0        0.0        0.0        0.0
"Line.157145"  2    -4292.4      199.1        0.0        0.2     0.3     0.5
"Line.157147"  1      -48.1      -22.8        0.0        0.0     0.0     0.0        0.0        0.0        0.0        0.0
"Line.157147"  2       48.1       22.8        0.0        0.0     0.0     0.0
"Line.157148"  1      -96.2      -45.5        0.0        0.0     0.0     0.0        0.0        0.0        0.0        0.0
"Line.157148"  2       96.2       45.5        0.0        0.0     0.0     0.0
"Line.157149"  1      -96.2      -45.5        0.0        0.0     0.0     0.0        0.0        0.0        0.0        0.0
"Line.157149"  2       96.2       45.5        0.0        0.0     0.0     0.0
"Line.157150"  1       16.3        7.7        0.0        0.0     0.0     0.0        0.0        0.0        0.0        0.0
"Line.157150"  2      -16.3       -7.7        0.0        0.0     0.0     0.0
"Line.157151"  1       11.4        5.3        0.0        0.0     0.0     0.0        0.0        0.0        0.0        0.0
"Line.157151"  2      -11.4       -5.3        0.0        0.0     0.0     0.0
"Line.157152"  1     4179.5     -253.7        0.0       -0.2    -0.3    -0.5        0.0        0.0        0.0        0.0
"Line.157152"  2    -4179.0      255.8        0.0        0.2     0.3     0.5
"Line.157153"  1        0.0        0.0        0.0        0.0     0.0     0.0        0.0        0.0        0.0        0.0
"Line.157153"  2        0.0        0.0        0.0        0.0     0.0     0.0
"Line.157155"  1        0.0        0.0        0.0        0.0     0.0     0.0        0.0        0.0        0.0        0.0
"Line.157155"  2        0.0        0.0        0.0        0.0     0.0     0.0
"Line.157156"  1        0.0        0.0        0.0        0.0     0.0     0.0        0.0        0.0        0.0        0.0
"Line.157156"  2        0.0        0.0        0.0        0.0     0.0     0.0
"Line.157157"  1        0.0        0.0        0.0        0.0     0.0     0.0        0.0        0.0        0.0        0.0
"Line.157157"  2        0.0        0.0        0.0        0.0     0.0     0.0
"Line.157158"  1        0.0        0.0        0.0        0.0     0.0     0.0        0.0        0.0        0.0        0.0
"Line.157158"  2        0.0        0.0        0.0        0.0     0.0     0.0
"Line.157159"  1        0.0        0.0        0.0        0.0     0.0     0.0        0.0        0.0        0.0        0.0
"Line.157159"  2        0.0        0.0        0.0        0.0     0.0     0.0
"Line.157160"  1     4102.4     -291.9        0.0       -0.2    -0.4    -0.4        0.0        0.0        0.0        0.0
"Line.157160"  2    -4101.8      294.1        0.0        0.2     0.4     0.4
"Line.157163"  1       48.1       22.6        0.0        0.0     0.0     0.0        0.0        0.0        0.0        0.0
"Line.157163"  2      -48.1      -22.6        0.0        0.0     0.0     0.0
"Line.157165"  1       48.1       22.6        0.0        0.0     0.0     0.0        0.0        0.0        0.0        0.0
"Line.157165"  2      -48.1      -22.6        0.0        0.0     0.0     0.0
"Line.157167"  1       48.1       22.6        0.0        0.0     0.0     0.0        0.0        0.0        0.0        0.0
"Line.157167"  2      -48.1      -22.6        0.0        0.0     0.0     0.0
"Line.157168"  1     3892.1     -395.4        0.0       -0.2    -0.4    -0.4      823.9      -83.9      248.7      -25.3
"Line.157168"  2    -3859.3      411.7        0.1        0.3     0.6     0.6
"Line.174945"  1        0.0        0.0        0.0        0.0     0.0     0.0        0.0        0.0        0.0        0.0
"Line.174945"  2        0.0        0.0        0.0        0.0     0.0     0.0
"Line.174947"  1       95.4       43.9        0.0        0.0     0.0     0.0        0.0        0.0        0.0        0.0
"Line.174947"  2      -95.4      -43.9        0.0        0.0     0.0     0.0
"Line.174948"  1      335.7      155.2        0.0        0.0     0.1     0.0        0.0        0.0        0.0        0.0
"Line.174948"  2     -335.7     -155.2        0.0        0.0    -0.1     0.0
"Line.174950"  1      539.0      249.8        0.0        0.0     0.1     0.1        0.0        0.0        0.0        0.0
"Line.174950"  2     -538.9     -249.8        0.0        0.0    -0.1    -0.1
"Line.174951"  1       95.4       43.9        0.0        0.0     0.0     0.0        0.0        0.0        0.0        0.0
"Line.174951"  2      -95.4      -43.9        0.0        0.0     0.0     0.0
"Line.174952"  1      443.5      205.9        0.0        0.0     0.1     0.1        0.0        0.0        0.0        0.0
"Line.174952"  2     -443.4     -205.8        0.0        0.0    -0.1    -0.1
"Line.174953"  1      443.4      205.8        0.0        0.0     0.1     0.1        0.0        0.0        0.0        0.0
"Line.174953"  2     -443.4     -205.8        0.0        0.0    -0.1    -0.1
"Line.174954"  1      431.4      200.4        0.0        0.0     0.1     0.0        0.0        0.0        0.0        0.0
"Line.174954"  2     -431.4     -200.4        0.0        0.0    -0.1     0.0
"Line.174955"  1      335.7      155.2        0.0        0.0     0.1     0.0        0.0        0.0        0.0        0.0
"Line.174955"  2     -335.7     -155.2        0.0        0.0    -0.1     0.0
"Line.174956"  1       95.4       43.9        0.0        0.0     0.0     0.0        0.0        0.0        0.0        0.0
"Line.174956"  2      -95.4      -43.9        0.0        0.0     0.0     0.0
"Line.174957"  1       95.7       45.2        0.0        0.0     0.0     0.0        0.0        0.0        0.0        0.0
"Line.174957"  2      -95.7      -45.2        0.0        0.0     0.0     0.0
"Line.174958"  1        0.3        1.4        0.0        0.0     0.0     0.0        0.0        0.0        0.0        0.0
"Line.174958"  2       -0.3       -1.4        0.0        0.0     0.0     0.0
"Line.174959"  1        0.3        1.4        0.0        0.0     0.0     0.0        0.0        0.0        0.0        0.0
"Line.174959"  2       -0.3       -1.4        0.0        0.0     0.0     0.0
"Line.174960"  1        0.3        1.4        0.0        0.0     0.0     0.0        0.0        0.0        0.0        0.0
"Line.174960"  2       -0.3       -1.4        0.0        0.0     0.0     0.0
"Line.174961"  1        0.0        0.0        0.0        0.0     0.0     0.0        0.0        0.0        0.0        0.0
"Line.174961"  2        0.0        0.0        0.0        0.0     0.0     0.0
"Line.174962"  1        0.0        0.0        0.0        0.0     0.0     0.0        0.0        0.0        0.0        0.0
"Line.174962"  2        0.0        0.0        0.0        0.0     0.0     0.0
"Line.174963"  1        0.0        0.0        0.0        0.0     0.0     0.0        0.0        0.0        0.0        0.0
"Line.174963"  2        0.0        0.0        0.0        0.0     0.0     0.0
"Line.174964"  1        0.0        0.0        0.0        0.0     0.0     0.0        0.0        0.0        0.0        0.0
"Line.174964"  2        0.0        0.0        0.0        0.0     0.0     0.0
"Line.174965"  1        0.0        0.0        0.0        0.0     0.0     0.0        0.0        0.0        0.0        0.0
"Line.174965"  2        0.0        0.0        0.0        0.0     0.0     0.0
"Line.174966"  1        0.0        0.0        0.0        0.0     0.0     0.0        0.0        0.0        0.0        0.0
"Line.174966"  2        0.0        0.0        0.0        0.0     0.0     0.0
"Line.174967"  1        0.0        0.0        0.0        0.0     0.0     0.0        0.0        0.0        0.0        0.0
"Line.174967"  2        0.0        0.0        0.0        0.0     0.0     0.0
"Line.174968"  1        0.0        0.0        0.0        0.0     0.0     0.0        0.0        0.0        0.0        0.0
"Line.174968"  2        0.0        0.0        0.0        0.0     0.0     0.0
"Line.174969"  1        0.0        0.0        0.0        0.0     0.0     0.0        0.0        0.0        0.0        0.0
"Line.174969"  2        0.0        0.0        0.0        0.0     0.0     0.0
"Line.174970"  1        0.0        0.0        0.0        0.0     0.0     0.0        0.0        0.0        0.0        0.0
"Line.174970"  2        0.0        0.0        0.0        0.0     0.0     0.0
"Line.174971"  1        0.0        0.0        0.0        0.0     0.0     0.0        0.0        0.0        0.0        0.0
"Line.174971"  2        0.0        0.0        0.0        0.0     0.0     0.0
"Line.174972"  1        0.0        0.0        0.0        0.0     0.0     0.0        0.0        0.0        0.0        0.0
"Line.174972"  2        0.0        0.0        0.0        0.0     0.0     0.0
"Line.174973"  1        0.0        0.0        0.0        0.0     0.0     0.0        0.0        0.0        0.0        0.0
"Line.174973"  2        0.0        0.0        0.0        0.0     0.0     0.0
"Line.174974"  1        0.0        0.0        0.0        0.0     0.0     0.0        0.0        0.0        0.0        0.0
"Line.174974"  2        0.0        0.0        0.0        0.0     0.0     0.0
"Line.174975"  1        0.0        0.0        0.0        0.0     0.0     0.0        0.0        0.0        0.0        0.0
"Line.174975"  2        0.0        0.0        0.0        0.0     0.0     0.0
"Line.174976"  1        0.0        0.0        0.0        0.0     0.0     0.0        0.0        0.0        0.0        0.0
"Line.174976"  2        0.0        0.0        0.0        0.0     0.0     0.0
"Line.174977"  1        0.0        0.0        0.0        0.0     0.0     0.0        0.0        0.0        0.0        0.0
"Line.174977"  2        0.0        0.0        0.0        0.0     0.0     0.0
"Line.174978"  1        0.0        0.0        0.0        0.0     0.0     0.0        0.0        0.0        0.0        0.0
"Line.174978"  2        0.0        0.0        0.0        0.0     0.0     0.0
"Line.174979"  1        0.0        0.0        0.0        0.0     0.0     0.0        0.0        0.0        0.0        0.0
"Line.174979"  2        0.0        0.0        0.0        0.0     0.0     0.0
"Line.174980"  1     -539.3     -250.2        0.0        0.0    -0.1    -0.1        0.0        0.0        0.0        0.0
"Line.174980"  2      539.4      250.6        0.0        0.0     0.1     0.1
"Line.174981"  1        0.0        0.0        0.0        0.0     0.0     0.0        0.0        0.0        0.0        0.0
"Line.174981"  2        0.0        0.0        0.0        0.0     0.0     0.0
"Line.174982"  1     -539.4     -250.6        0.0        0.0    -0.1    -0.1        0.0        0.0        0.0        0.0
"Line.174982"  2      539.4      250.6        0.0        0.0     0.1     0.1
"Line.174983"  1    -2167.7      116.7        0.0        0.0    -0.1    -0.1        0.0        0.0        0.0        0.0
"Line.174983"  2     2167.8     -116.3        0.0        0.0     0.1     0.1
"Line.174984"  1        0.0        0.0        0.0        0.0     0.0     0.0        0.0        0.0        0.0        0.0
"Line.174984"  2        0.0        0.0        0.0        0.0     0.0     0.0
"Line.174987"  1     1628.3     -367.3        0.0        0.0     0.0     0.1        0.0        0.0        0.0        0.0
"Line.174987"  2    -1628.2      367.7        0.0        0.0     0.0    -0.1
"Line.174988"  1      555.9     -828.9        0.0        0.0     0.0     0.1        0.0        0.0        0.0        0.0
"Line.174988"  2     -555.9      828.9        0.0        0.0     0.0    -0.1
"Line.174989"  1      110.9       52.6        0.0        0.0     0.0    -0.1        0.0        0.0        0.0        0.0
"Line.174989"  2     -110.9      -52.6        0.0        0.0     0.0     0.1
"Line.174990"  1     1072.3      461.1        0.0        0.0     0.0     0.0        0.0        0.0        0.0        0.0
"Line.174990"  2    -1072.3     -461.1        0.0        0.0     0.0     0.0
"Line.174991"  1        0.0        0.0        0.0        0.0     0.0     0.0        0.0        0.0        0.0        0.0
"Line.174991"  2        0.0        0.0        0.0        0.0     0.0     0.0
"Line.174994"  1        0.0        0.0        0.0        0.0     0.0     0.0        0.0        0.0        0.0        0.0
"Line.174994"  2        0.0        0.0        0.0        0.0     0.0     0.0
"Line.174995"  1    -2168.1      115.7        0.0        0.0    -0.1    -0.1        0.0        0.0        0.0        0.0
"Line.174995"  2     2168.3     -114.7        0.0        0.0     0.1     0.1
"Line.174998"  1    -2487.9      -27.3        0.0       -0.1    -0.1    -0.1        0.0        0.0        0.0        0.0
"Line.174998"  2     2488.1       28.0        0.0        0.1     0.1     0.1
"Line.174999"  1    -2491.2      -29.5        0.0       -0.1    -0.1    -0.1        0.0        0.0        0.0        0.0
"Line.174999"  2     2491.3       30.0        0.0        0.1     0.1     0.1
"Line.175000"  1        0.0        0.0        0.0        0.0     0.0     0.0        0.0        0.0        0.0        0.0
"Line.175000"  2        0.0        0.0        0.0        0.0     0.0     0.0
"Line.175001"  1       -0.3       -1.4        0.0        0.0     0.0     0.0        0.0        0.0        0.0        0.0
"Line.175001"  2        0.3        1.4        0.0        0.0     0.0     0.0
"Line.175002"  1      110.9       52.6        0.0        0.0     0.0    -0.1        0.0        0.0        0.0        0.0
"Line.175002"  2     -110.9      -52.6        0.0        0.0     0.0     0.1
"Line.175003"  1       95.7       45.7        0.0        0.0     0.0     0.0        0.0        0.0        0.0        0.0
"Line.175003"  2      -95.7      -45.7        0.0        0.0     0.0     0.0
"Line.175004"  1        0.3        1.4        0.0        0.0     0.0     0.0        0.0        0.0        0.0        0.0
"Line.175004"  2       -0.3       -1.4        0.0        0.0     0.0     0.0
"Line.175005"  1        0.3        1.4        0.0        0.0     0.0     0.0        0.0        0.0        0.0        0.0
"Line.175005"  2       -0.3       -1.4        0.0        0.0     0.0     0.0
"Line.175006"  1        0.0        0.0        0.0        0.0     0.0     0.0        0.0        0.0        0.0        0.0
"Line.175006"  2        0.0        0.0        0.0        0.0     0.0     0.0
...
"Line.s_0862099-da1"  1       15.9        6.9        0.0        0.0     0.0     0.0        0.0        0.0        0.0        0.0
"Line.s_0862099-da1"  2      -15.9       -6.9        0.0        0.0     0.0     0.0
"Line.s_0862099-da2"  1       15.9        6.9        0.0        0.0     0.0     0.0        0.0        0.0        0.0        0.0
"Line.s_0862099-da2"  2      -15.9       -6.9        0.0        0.0     0.0     0.0
"Line.s_0862099-da3"  1       15.9        6.9        0.0        0.0     0.0     0.0        0.0        0.0        0.0        0.0
"Line.s_0862099-da3"  2      -15.9       -6.9        0.0        0.0     0.0     0.0
"Line.s_1000663-da1"  1        0.0        0.0        0.0        0.0     0.0     0.0        0.0        0.0        0.0        0.0
"Line.s_1000663-da1"  2        0.0        0.0        0.0        0.0     0.0     0.0
"Line.s_1000663-db1"  1        0.0        0.0        0.0        0.0     0.0     0.0        0.0        0.0        0.0        0.0
"Line.s_1000663-db1"  2        0.0        0.0        0.0        0.0     0.0     0.0
"Line.s_1000663-dc1"  1        0.0        0.0        0.0        0.0     0.0     0.0        0.0        0.0        0.0        0.0
"Line.s_1000663-dc1"  2        0.0        0.0        0.0        0.0     0.0     0.0
"Line.s_1000252-db1"  1        0.0        0.0        0.0        0.0     0.0     0.0        0.0        0.0        0.0        0.0
"Line.s_1000252-db1"  2        0.0        0.0        0.0        0.0     0.0     0.0
"Line.s_1001746-da1"  1       31.8       13.6        0.0        0.0     0.0     0.0        0.0        0.0        0.0        0.0
"Line.s_1001746-da1"  2      -31.6      -13.5        0.0        0.0     0.0     0.0
"Line.s_1001746-da2"  1       31.8       13.6        0.0        0.0     0.0     0.0        0.0        0.0        0.0        0.0
"Line.s_1001746-da2"  2      -31.6      -13.5        0.0        0.0     0.0     0.0
"Line.s_1001746-da3"  1       31.8       13.6        0.0        0.0     0.0     0.0        0.0        0.0        0.0        0.0
"Line.s_1001746-da3"  2      -31.6      -13.5        0.0        0.0     0.0     0.0
"Line.s_1000502-db1"  1        0.0        0.0        0.0        0.0     0.0     0.0        0.0        0.0        0.0        0.0
"Line.s_1000502-db1"  2        0.0        0.0        0.0        0.0     0.0     0.0
"Line.s_1000824-da1"  1        0.0        0.0        0.0        0.0     0.0     0.0        0.0        0.0        0.0        0.0
"Line.s_1000824-da1"  2        0.0        0.0        0.0        0.0     0.0     0.0
"Line.s_1000824-da2"  1        0.0        0.0        0.0        0.0     0.0     0.0        0.0        0.0        0.0        0.0
"Line.s_1000824-da2"  2        0.0        0.0        0.0        0.0     0.0     0.0
"Line.s_1000824-da3"  1        0.0        0.0        0.0        0.0     0.0     0.0        0.0        0.0        0.0        0.0
"Line.s_1000824-da3"  2        0.0        0.0        0.0        0.0     0.0     0.0
"Line.s_1000824-db1"  1        0.0        0.0        0.0        0.0     0.0     0.0        0.0        0.0        0.0        0.0
"Line.s_1000824-db1"  2        0.0        0.0        0.0        0.0     0.0     0.0
"Line.s_1000824-db2"  1        0.0        0.0        0.0        0.0     0.0     0.0        0.0        0.0        0.0        0.0
"Line.s_1000824-db2"  2        0.0        0.0        0.0        0.0     0.0     0.0
"Line.s_1000824-db3"  1        0.0        0.0        0.0        0.0     0.0     0.0        0.0        0.0        0.0        0.0
"Line.s_1000824-db3"  2        0.0        0.0        0.0        0.0     0.0     0.0
"Line.s_1000824-dc1"  1        0.0        0.0        0.0        0.0     0.0     0.0        0.0        0.0        0.0        0.0
"Line.s_1000824-dc1"  2        0.0        0.0        0.0        0.0     0.0     0.0
"Line.s_1000824-dc2"  1        0.0        0.0        0.0        0.0     0.0     0.0        0.0        0.0        0.0        0.0
"Line.s_1000824-dc2"  2        0.0        0.0        0.0        0.0     0.0     0.0
"Line.s_1000824-dc3"  1        0.0        0.0        0.0        0.0     0.0     0.0        0.0        0.0        0.0        0.0
"Line.s_1000824-dc3"  2        0.0        0.0        0.0        0.0     0.0     0.0
"Line.s_1001745-da1"  1       31.8       13.6        0.0        0.0     0.0     0.0        0.0        0.0        0.0        0.0
"Line.s_1001745-da1"  2      -31.6      -13.5        0.0        0.0     0.0     0.0
"Line.s_1001745-da2"  1       31.8       13.6        0.0        0.0     0.0     0.0        0.0        0.0        0.0        0.0
"Line.s_1001745-da2"  2      -31.6      -13.5        0.0        0.0     0.0     0.0
"Line.s_1001745-da3"  1       31.8       13.6        0.0        0.0     0.0     0.0        0.0        0.0        0.0        0.0
"Line.s_1001745-da3"  2      -31.6      -13.5        0.0        0.0     0.0     0.0
"Line.s_1001329-da1"  1       15.9        6.9        0.0        0.0     0.0     0.0        0.0        0.0        0.0        0.0
"Line.s_1001329-da1"  2      -15.8       -6.8        0.0        0.0     0.0     0.0
"Line.s_1001329-da2"  1       15.9        6.9        0.0        0.0     0.0     0.0        0.0        0.0        0.0        0.0
"Line.s_1001329-da2"  2      -15.8       -6.8        0.0        0.0     0.0     0.0
"Line.s_1001329-da3"  1       15.9        6.9        0.0        0.0     0.0     0.0        0.0        0.0        0.0        0.0
"Line.s_1001329-da3"  2      -15.8       -6.8        0.0        0.0     0.0     0.0
"Line.s_1001359-da1"  1       53.0       22.2        0.0        0.0     0.0     0.0        0.0        0.0        0.0        0.0
"Line.s_1001359-da1"  2      -52.2      -21.9        0.0        0.0     0.0     0.0
"Line.s_1001359-da2"  1       53.0       22.2        0.0        0.0     0.0     0.0        0.0        0.0        0.0        0.0
"Line.s_1001359-da2"  2      -52.2      -21.9        0.0        0.0     0.0     0.0
"Line.s_1001359-da3"  1       53.0       22.2        0.0        0.0     0.0     0.0        0.0        0.0        0.0        0.0
"Line.s_1001359-da3"  2      -52.2      -21.9        0.0        0.0     0.0     0.0
"Line.s_1001330-da1"  1       15.9        6.9        0.0        0.0     0.0     0.0        0.0        0.0        0.0        0.0
"Line.s_1001330-da1"  2      -15.8       -6.8        0.0        0.0     0.0     0.0
"Line.s_1001330-da2"  1       15.9        6.9        0.0        0.0     0.0     0.0        0.0        0.0        0.0        0.0
"Line.s_1001330-da2"  2      -15.8       -6.8        0.0        0.0     0.0     0.0
"Line.s_1001330-da3"  1       15.9        6.9        0.0        0.0     0.0     0.0        0.0        0.0        0.0        0.0
"Line.s_1001330-da3"  2      -15.8       -6.8        0.0        0.0     0.0     0.0
"Line.s_1001330-da4"  1       15.9        6.9        0.0        0.0     0.0     0.0        0.0        0.0        0.0        0.0
"Line.s_1001330-da4"  2      -15.8       -6.8        0.0        0.0     0.0     0.0
"Line.s_1001330-da5"  1       15.9        6.9        0.0        0.0     0.0     0.0        0.0        0.0        0.0        0.0
"Line.s_1001330-da5"  2      -15.8       -6.8        0.0        0.0     0.0     0.0
"Line.s_1001330-da6"  1       15.9        6.9        0.0        0.0     0.0     0.0        0.0        0.0        0.0        0.0
"Line.s_1001330-da6"  2      -15.8       -6.8        0.0        0.0     0.0     0.0
"Line.s_1000672-da1"  1        0.0        0.0        0.0        0.0     0.0     0.0        0.0        0.0        0.0        0.0
"Line.s_1000672-da1"  2        0.0        0.0        0.0        0.0     0.0     0.0
"Line.s_1001708-da1"  1       79.5       32.6        0.0        0.0     0.0     0.0        0.0        0.0        0.0        0.0
"Line.s_1001708-da1"  2      -77.7      -32.0        0.0        0.0     0.0     0.0
"Line.s_1001708-da2"  1       79.5       32.6        0.0        0.0     0.0     0.0        0.0        0.0        0.0        0.0
"Line.s_1001708-da2"  2      -77.7      -32.0        0.0        0.0     0.0     0.0
"Line.s_1001708-da3"  1       79.5       32.6        0.0        0.0     0.0     0.0        0.0        0.0        0.0        0.0
"Line.s_1001708-da3"  2      -77.7      -32.0        0.0        0.0     0.0     0.0
"Line.s_1001345-da1"  1       15.9        6.8        0.0        0.0     0.0     0.0        0.0        0.0        0.0        0.0
"Line.s_1001345-da1"  2      -15.8       -6.8        0.0        0.0     0.0     0.0
"Line.s_1001345-da2"  1       15.9        6.8        0.0        0.0     0.0     0.0        0.0        0.0        0.0        0.0
"Line.s_1001345-da2"  2      -15.8       -6.8        0.0        0.0     0.0     0.0
"Line.s_1001345-da3"  1       15.9        6.8        0.0        0.0     0.0     0.0        0.0        0.0        0.0        0.0
"Line.s_1001345-da3"  2      -15.8       -6.8        0.0        0.0     0.0     0.0
"Line.s_1000933-da1"  1        3.2        1.4        0.0        0.0     0.0     0.0        0.0        0.0        0.0        0.0
"Line.s_1000933-da1"  2       -3.2       -1.4        0.0        0.0     0.0     0.0
"Line.s_1000933-da2"  1        3.2        1.4        0.0        0.0     0.0     0.0        0.0        0.0        0.0        0.0
"Line.s_1000933-da2"  2       -3.2       -1.4        0.0        0.0     0.0     0.0
"Line.s_1000933-da3"  1        3.2        1.4        0.0        0.0     0.0     0.0        0.0        0.0        0.0        0.0
"Line.s_1000933-da3"  2       -3.2       -1.4        0.0        0.0     0.0     0.0
"Line.s_1000933-da4"  1        3.2        1.4        0.0        0.0     0.0     0.0        0.0        0.0        0.0        0.0
"Line.s_1000933-da4"  2       -3.2       -1.4        0.0        0.0     0.0     0.0
"Line.s_1000933-da5"  1        3.2        1.4        0.0        0.0     0.0     0.0        0.0        0.0        0.0        0.0
"Line.s_1000933-da5"  2       -3.2       -1.4        0.0        0.0     0.0     0.0
"Line.s_1000933-da6"  1        3.2        1.4        0.0        0.0     0.0     0.0        0.0        0.0        0.0        0.0
"Line.s_1000933-da6"  2       -3.2       -1.4        0.0        0.0     0.0     0.0
"Line.s_1000933-da7"  1        3.2        1.4        0.0        0.0     0.0     0.0        0.0        0.0        0.0        0.0
"Line.s_1000933-da7"  2       -3.2       -1.4        0.0        0.0     0.0     0.0
"Line.s_1000933-da8"  1        3.2        1.4        0.0        0.0     0.0     0.0        0.0        0.0        0.0        0.0
"Line.s_1000933-da8"  2       -3.2       -1.4        0.0        0.0     0.0     0.0
"Line.s_1000933-da9"  1        3.2        1.4        0.0        0.0     0.0     0.0        0.0        0.0        0.0        0.0
"Line.s_1000933-da9"  2       -3.2       -1.4        0.0        0.0     0.0     0.0
"Line.s_1000933-da10"  1        3.2        1.4        0.0        0.0     0.0     0.0        0.0        0.0        0.0        0.0
"Line.s_1000933-da10"  2       -3.2       -1.4        0.0        0.0     0.0     0.0
"Line.s_1000933-da11"  1        3.2        1.4        0.0        0.0     0.0     0.0        0.0        0.0        0.0        0.0
"Line.s_1000933-da11"  2       -3.2       -1.4        0.0        0.0     0.0     0.0
"Line.s_1000933-da12"  1        3.2        1.4        0.0        0.0     0.0     0.0        0.0        0.0        0.0        0.0
"Line.s_1000933-da12"  2       -3.2       -1.4        0.0        0.0     0.0     0.0
"Line.s_1000933-da13"  1        3.2        1.4        0.0        0.0     0.0     0.0        0.0        0.0        0.0        0.0
"Line.s_1000933-da13"  2       -3.2       -1.4        0.0        0.0     0.0     0.0
"Line.s_1000933-da14"  1        3.2        1.4        0.0        0.0     0.0     0.0        0.0        0.0        0.0        0.0
"Line.s_1000933-da14"  2       -3.2       -1.4        0.0        0.0     0.0     0.0
"Line.s_1000933-da15"  1        3.2        1.4        0.0        0.0     0.0     0.0        0.0        0.0        0.0        0.0
"Line.s_1000933-da15"  2       -3.2       -1.4        0.0        0.0     0.0     0.0
"Line.s_1001823-da1"  1        0.0        0.0        0.0        0.0     0.0     0.0        0.0        0.0        0.0        0.0
"Line.s_1001823-da1"  2        0.0        0.0        0.0        0.0     0.0     0.0
"Line.s_1001822-da1"  1        0.0        0.0        0.0        0.0     0.0     0.0        0.0        0.0        0.0        0.0
"Line.s_1001822-da1"  2        0.0        0.0        0.0        0.0     0.0     0.0
"Line.s_1001822-db1"  1        0.0        0.0        0.0        0.0     0.0     0.0        0.0        0.0        0.0        0.0
"Line.s_1001822-db1"  2        0.0        0.0        0.0        0.0     0.0     0.0
"Line.s_1001822-dc1"  1        0.0        0.0        0.0        0.0     0.0     0.0        0.0        0.0        0.0        0.0
"Line.s_1001822-dc1"  2        0.0        0.0        0.0        0.0     0.0     0.0
"Line.s_1000042-da1"  1        0.0        0.0        0.0        0.0     0.0     0.0        0.0        0.0        0.0        0.0
"Line.s_1000042-da1"  2        0.0        0.0        0.0        0.0     0.0     0.0
"Line.s_1000042-da2"  1        0.0        0.0        0.0        0.0     0.0     0.0        0.0        0.0        0.0        0.0
"Line.s_1000042-da2"  2        0.0        0.0        0.0        0.0     0.0     0.0
"Line.s_1000042-da3"  1        0.0        0.0        0.0        0.0     0.0     0.0        0.0        0.0        0.0        0.0
"Line.s_1000042-da3"  2        0.0        0.0        0.0        0.0     0.0     0.0
"Line.s_1000042-da4"  1        0.0        0.0        0.0        0.0     0.0     0.0        0.0        0.0        0.0        0.0
"Line.s_1000042-da4"  2        0.0        0.0        0.0        0.0     0.0     0.0
"Line.s_1000042-da5"  1        0.0        0.0        0.0        0.0     0.0     0.0        0.0        0.0        0.0        0.0
"Line.s_1000042-da5"  2        0.0        0.0        0.0        0.0     0.0     0.0
"Line.s_1000042-da6"  1        0.0        0.0        0.0        0.0     0.0     0.0        0.0        0.0        0.0        0.0
"Line.s_1000042-da6"  2        0.0        0.0        0.0        0.0     0.0     0.0
"Line.s_1000042-da7"  1        0.0        0.0        0.0        0.0     0.0     0.0        0.0        0.0        0.0        0.0
"Line.s_1000042-da7"  2        0.0        0.0        0.0        0.0     0.0     0.0
"Line.s_1000077-da1"  1        0.0        0.0        0.0        0.0     0.0     0.0        0.0        0.0        0.0        0.0
"Line.s_1000077-da1"  2        0.0        0.0        0.0        0.0     0.0     0.0
"Line.s_1000077-da2"  1        0.0        0.0        0.0        0.0     0.0     0.0        0.0        0.0        0.0        0.0
"Line.s_1000077-da2"  2        0.0        0.0        0.0        0.0     0.0     0.0
"Line.s_1000077-da3"  1        0.0        0.0        0.0        0.0     0.0     0.0        0.0        0.0        0.0        0.0
"Line.s_1000077-da3"  2        0.0        0.0        0.0        0.0     0.0     0.0
"Line.s_1000077-da4"  1        0.0        0.0        0.0        0.0     0.0     0.0        0.0        0.0        0.0        0.0
"Line.s_1000077-da4"  2        0.0        0.0        0.0        0.0     0.0     0.0
"Line.s_1000077-da5"  1        0.0        0.0        0.0        0.0     0.0     0.0        0.0        0.0        0.0        0.0
"Line.s_1000077-da5"  2        0.0        0.0        0.0        0.0     0.0     0.0
"Line.s_1000077-da6"  1        0.0        0.0        0.0        0.0     0.0     0.0        0.0        0.0        0.0        0.0
"Line.s_1000077-da6"  2        0.0        0.0        0.0        0.0     0.0     0.0
"Line.s_1000474-da1"  1        0.0        0.0        0.0        0.0     0.0     0.0        0.0        0.0        0.0        0.0
"Line.s_1000474-da1"  2        0.0        0.0        0.0        0.0     0.0     0.0
"Line.s_1000474-da2"  1        0.0        0.0        0.0        0.0     0.0     0.0        0.0        0.0        0.0        0.0
"Line.s_1000474-da2"  2        0.0        0.0        0.0        0.0     0.0     0.0
"Line.s_1000474-da3"  1        0.0        0.0        0.0        0.0     0.0     0.0        0.0        0.0        0.0        0.0
"Line.s_1000474-da3"  2        0.0        0.0        0.0        0.0     0.0     0.0
"Line.s_1000474-da4"  1        0.0        0.0        0.0        0.0     0.0     0.0        0.0        0.0        0.0        0.0
"Line.s_1000474-da4"  2        0.0        0.0        0.0        0.0     0.0     0.0
"Line.s_1000474-da5"  1        0.0        0.0        0.0        0.0     0.0     0.0        0.0        0.0        0.0        0.0
"Line.s_1000474-da5"  2        0.0        0.0        0.0        0.0     0.0     0.0
"Line.s_1000043-da1"  1        0.0        0.0        0.0        0.0     0.0     0.0        0.0        0.0        0.0        0.0
"Line.s_1000043-da1"  2        0.0        0.0        0.0        0.0     0.0     0.0
"Line.s_1000043-da2"  1        0.0        0.0        0.0        0.0     0.0     0.0        0.0        0.0        0.0        0.0
"Line.s_1000043-da2"  2        0.0        0.0        0.0        0.0     0.0     0.0
"Line.s_1000043-da3"  1        0.0        0.0        0.0        0.0     0.0     0.0        0.0        0.0        0.0        0.0
"Line.s_1000043-da3"  2        0.0        0.0        0.0        0.0     0.0     0.0
"Line.s_1000043-da4"  1        0.0        0.0        0.0        0.0     0.0     0.0        0.0        0.0        0.0        0.0
"Line.s_1000043-da4"  2        0.0        0.0        0.0        0.0     0.0     0.0
"Line.s_1000043-da5"  1        0.0        0.0        0.0        0.0     0.0     0.0        0.0        0.0        0.0        0.0
"Line.s_1000043-da5"  2        0.0        0.0        0.0        0.0     0.0     0.0
"Line.s_1000043-da6"  1        0.0        0.0        0.0        0.0     0.0     0.0        0.0        0.0        0.0        0.0
"Line.s_1000043-da6"  2        0.0        0.0        0.0        0.0     0.0     0.0
"Line.s_1001567-da1"  1       15.9        6.8        0.0        0.0     0.0     0.0        0.0        0.0        0.0        0.0
"Line.s_1001567-da1"  2      -15.8       -6.8        0.0        0.0     0.0     0.0
"Line.s_1001567-da2"  1       15.9        6.8        0.0        0.0     0.0     0.0        0.0        0.0        0.0        0.0
"Line.s_1001567-da2"  2      -15.8       -6.8        0.0        0.0     0.0     0.0
"Line.s_1001567-da3"  1       15.9        6.8        0.0        0.0     0.0     0.0        0.0        0.0        0.0        0.0
"Line.s_1001567-da3"  2      -15.8       -6.8        0.0        0.0     0.0     0.0
"Line.s_1000233-db1"  1        0.0        0.0        0.0        0.0     0.0     0.0        0.0        0.0        0.0        0.0
"Line.s_1000233-db1"  2        0.0        0.0        0.0        0.0     0.0     0.0
"Line.s_1000569-da1"  1       31.6       13.2        0.0        0.0     0.0     0.0        0.0        0.0        0.0        0.0
"Line.s_1000569-da1"  2      -31.3      -13.1        0.0        0.0     0.0     0.0
"Line.s_1000569-da2"  1       31.6       13.2        0.0        0.0     0.0     0.0        0.0        0.0        0.0        0.0
"Line.s_1000569-da2"  2      -31.3      -13.1        0.0        0.0     0.0     0.0
"Line.s_1000569-da3"  1       31.6       13.2        0.0        0.0     0.0     0.0        0.0        0.0        0.0        0.0
"Line.s_1000569-da3"  2      -31.3      -13.1        0.0        0.0     0.0     0.0
"Line.s_1000746-da1"  1       31.5       13.2        0.0        0.0     0.0     0.0        0.0        0.0        0.0        0.0
"Line.s_1000746-da1"  2      -31.3      -13.1        0.0        0.0     0.0     0.0
"Line.s_1000746-da2"  1       31.5       13.2        0.0        0.0     0.0     0.0        0.0        0.0        0.0        0.0
"Line.s_1000746-da2"  2      -31.3      -13.1        0.0        0.0     0.0     0.0
"Line.s_1000746-da3"  1       31.5       13.2        0.0        0.0     0.0     0.0        0.0        0.0        0.0        0.0
"Line.s_1000746-da3"  2      -31.3      -13.1        0.0        0.0     0.0     0.0
"Line.s_1000608-da1"  1        0.0        0.0        0.0        0.0     0.0     0.0        0.0        0.0        0.0        0.0
"Line.s_1000608-da1"  2        0.0        0.0        0.0        0.0     0.0     0.0
"Line.s_1000608-da2"  1        0.0        0.0        0.0        0.0     0.0     0.0        0.0        0.0        0.0        0.0
"Line.s_1000608-da2"  2        0.0        0.0        0.0        0.0     0.0     0.0
"Line.s_1000608-da3"  1        0.0        0.0        0.0        0.0     0.0     0.0        0.0        0.0        0.0        0.0
"Line.s_1000608-da3"  2        0.0        0.0        0.0        0.0     0.0     0.0
"Line.s_1000608-da4"  1        0.0        0.0        0.0        0.0     0.0     0.0        0.0        0.0        0.0        0.0
"Line.s_1000608-da4"  2        0.0        0.0        0.0        0.0     0.0     0.0
"Line.s_1000608-da5"  1        0.0        0.0        0.0        0.0     0.0     0.0        0.0        0.0        0.0        0.0
"Line.s_1000608-da5"  2        0.0        0.0        0.0        0.0     0.0     0.0
"Line.s_1000608-da6"  1        0.0        0.0        0.0        0.0     0.0     0.0        0.0        0.0        0.0        0.0
"Line.s_1000608-da6"  2        0.0        0.0        0.0        0.0     0.0     0.0
"Line.s_1000608-da7"  1        0.0        0.0        0.0        0.0     0.0     0.0        0.0        0.0        0.0        0.0
"Line.s_1000608-da7"  2        0.0        0.0        0.0        0.0     0.0     0.0
"Line.s_1000608-da8"  1        0.0        0.0        0.0        0.0     0.0     0.0        0.0        0.0        0.0        0.0
"Line.s_1000608-da8"  2        0.0        0.0        0.0        0.0     0.0     0.0
"Line.s_1000609-da1"  1        0.0        0.0        0.0        0.0     0.0     0.0        0.0        0.0        0.0        0.0
"Line.s_1000609-da1"  2        0.0        0.0        0.0        0.0     0.0     0.0
"Line.s_1000609-da2"  1        0.0        0.0        0.0        0.0     0.0     0.0        0.0        0.0        0.0        0.0
"Line.s_1000609-da2"  2        0.0        0.0        0.0        0.0     0.0     0.0
"Line.s_1000609-da3"  1        0.0        0.0        0.0        0.0     0.0     0.0        0.0        0.0        0.0        0.0
"Line.s_1000609-da3"  2        0.0        0.0        0.0        0.0     0.0     0.0
"Line.s_1000609-da4"  1        0.0        0.0        0.0        0.0     0.0     0.0        0.0        0.0        0.0        0.0
"Line.s_1000609-da4"  2        0.0        0.0        0.0        0.0     0.0     0.0
"Line.s_1000609-da5"  1        0.0        0.0        0.0        0.0     0.0     0.0        0.0        0.0        0.0        0.0
"Line.s_1000609-da5"  2        0.0        0.0        0.0        0.0     0.0     0.0
"Line.s_1000609-da6"  1        0.0        0.0        0.0        0.0     0.0     0.0        0.0        0.0        0.0        0.0
"Line.s_1000609-da6"  2        0.0        0.0        0.0        0.0     0.0     0.0
"Line.s_1000609-da7"  1        0.0        0.0        0.0        0.0     0.0     0.0        0.0        0.0        0.0        0.0
"Line.s_1000609-da7"  2        0.0        0.0        0.0        0.0     0.0     0.0
"Line.s_1000609-da8"  1        0.0        0.0        0.0        0.0     0.0     0.0        0.0        0.0        0.0        0.0
"Line.s_1000609-da8"  2        0.0        0.0        0.0        0.0     0.0     0.0
"Line.s_1000609-da9"  1        0.0        0.0        0.0        0.0     0.0     0.0        0.0        0.0        0.0        0.0
"Line.s_1000609-da9"  2        0.0        0.0        0.0        0.0     0.0     0.0
"Line.s_1000609-da10"  1        0.0        0.0        0.0        0.0     0.0     0.0        0.0        0.0        0.0        0.0
"Line.s_1000609-da10"  2        0.0        0.0        0.0        0.0     0.0     0.0
"Line.s_1000609-da11"  1        0.0        0.0        0.0        0.0     0.0     0.0        0.0        0.0        0.0        0.0
"Line.s_1000609-da11"  2        0.0        0.0        0.0        0.0     0.0     0.0
"Line.s_1000610-da1"  1        0.0        0.0        0.0        0.0     0.0     0.0        0.0        0.0        0.0        0.0
"Line.s_1000610-da1"  2        0.0        0.0        0.0        0.0     0.0     0.0
"Line.s_1000610-da2"  1        0.0        0.0        0.0        0.0     0.0     0.0        0.0        0.0        0.0        0.0
"Line.s_1000610-da2"  2        0.0        0.0        0.0        0.0     0.0     0.0
"Line.s_1000610-da3"  1        0.0        0.0        0.0        0.0     0.0     0.0        0.0        0.0        0.0        0.0
"Line.s_1000610-da3"  2        0.0        0.0        0.0        0.0     0.0     0.0
"Line.s_1000610-da4"  1        0.0        0.0        0.0        0.0     0.0     0.0        0.0        0.0        0.0        0.0
"Line.s_1000610-da4"  2        0.0        0.0        0.0        0.0     0.0     0.0
"Line.s_1000610-da5"  1        0.0        0.0        0.0        0.0     0.0     0.0        0.0        0.0        0.0        0.0
"Line.s_1000610-da5"  2        0.0        0.0        0.0        0.0     0.0     0.0
"Line.s_1000610-da6"  1        0.0        0.0        0.0        0.0     0.0     0.0        0.0        0.0        0.0        0.0
"Line.s_1000610-da6"  2        0.0        0.0        0.0        0.0     0.0     0.0
"Line.s_1000610-da7"  1        0.0        0.0        0.0        0.0     0.0     0.0        0.0        0.0        0.0        0.0
"Line.s_1000610-da7"  2        0.0        0.0        0.0        0.0     0.0     0.0
"Line.s_1000610-da8"  1        0.0        0.0        0.0        0.0     0.0     0.0        0.0        0.0        0.0        0.0
"Line.s_1000610-da8"  2        0.0        0.0        0.0        0.0     0.0     0.0
"Line.s_1000610-da9"  1        0.0        0.0        0.0        0.0     0.0     0.0        0.0        0.0        0.0        0.0
"Line.s_1000610-da9"  2        0.0        0.0        0.0        0.0     0.0     0.0
"Line.s_1000610-da10"  1        0.0        0.0        0.0        0.0     0.0     0.0        0.0        0.0        0.0        0.0
"Line.s_1000610-da10"  2        0.0        0.0        0.0        0.0     0.0     0.0
"Line.s_1000610-da11"  1        0.0        0.0        0.0        0.0     0.0     0.0        0.0        0.0        0.0        0.0
"Line.s_1000610-da11"  2        0.0        0.0        0.0        0.0     0.0     0.0
"Line.s_1000611-da1"  1        0.0        0.0        0.0        0.0     0.0     0.0        0.0        0.0        0.0        0.0
"Line.s_1000611-da1"  2        0.0        0.0        0.0        0.0     0.0     0.0
"Line.s_1000611-da2"  1        0.0        0.0        0.0        0.0     0.0     0.0        0.0        0.0        0.0        0.0
"Line.s_1000611-da2"  2        0.0        0.0        0.0        0.0     0.0     0.0
"Line.s_1000611-da3"  1        0.0        0.0        0.0        0.0     0.0     0.0        0.0        0.0        0.0        0.0
"Line.s_1000611-da3"  2        0.0        0.0        0.0        0.0     0.0     0.0
"Line.s_1000611-da4"  1        0.0        0.0        0.0        0.0     0.0     0.0        0.0        0.0        0.0        0.0
"Line.s_1000611-da4"  2        0.0        0.0        0.0        0.0     0.0     0.0
"Line.s_1000611-da5"  1        0.0        0.0        0.0        0.0     0.0     0.0        0.0        0.0        0.0        0.0
"Line.s_1000611-da5"  2        0.0        0.0        0.0        0.0     0.0     0.0
"Line.s_1000612-da1"  1        0.0        0.0        0.0        0.0     0.0     0.0        0.0        0.0        0.0        0.0
"Line.s_1000612-da1"  2        0.0        0.0        0.0        0.0     0.0     0.0
"Line.s_1000612-da2"  1        0.0        0.0        0.0        0.0     0.0     0.0        0.0        0.0        0.0        0.0
"Line.s_1000612-da2"  2        0.0        0.0        0.0        0.0     0.0     0.0
"Line.s_1000612-da3"  1        0.0        0.0        0.0        0.0     0.0     0.0        0.0        0.0        0.0        0.0
"Line.s_1000612-da3"  2        0.0        0.0        0.0        0.0     0.0     0.0
"Line.s_1000612-da4"  1        0.0        0.0        0.0        0.0     0.0     0.0        0.0        0.0        0.0        0.0
"Line.s_1000612-da4"  2        0.0        0.0        0.0        0.0     0.0     0.0
"Line.s_1000612-da5"  1        0.0        0.0        0.0        0.0     0.0     0.0        0.0        0.0        0.0        0.0
"Line.s_1000612-da5"  2        0.0        0.0        0.0        0.0     0.0     0.0
"Line.s_1000612-da6"  1        0.0        0.0        0.0        0.0     0.0     0.0        0.0        0.0        0.0        0.0
"Line.s_1000612-da6"  2        0.0        0.0        0.0        0.0     0.0     0.0
"Line.s_1000612-da7"  1        0.0        0.0        0.0        0.0     0.0     0.0        0.0        0.0        0.0        0.0
"Line.s_1000612-da7"  2        0.0        0.0        0.0        0.0     0.0     0.0
"Line.s_1000612-da8"  1        0.0        0.0        0.0        0.0     0.0     0.0        0.0        0.0        0.0        0.0
"Line.s_1000612-da8"  2        0.0        0.0        0.0        0.0     0.0     0.0
"Line.s_1000598-dc1"  1        0.0        0.0        0.0        0.0     0.0     0.0        0.0        0.0        0.0        0.0
"Line.s_1000598-dc1"  2        0.0        0.0        0.0        0.0     0.0     0.0
"Line.s_1000598-dc2"  1        0.0        0.0        0.0        0.0     0.0     0.0        0.0        0.0        0.0        0.0
"Line.s_1000598-dc2"  2        0.0        0.0        0.0        0.0     0.0     0.0
"Line.s_1000598-dc3"  1        0.0        0.0        0.0        0.0     0.0     0.0        0.0        0.0        0.0        0.0
"Line.s_1000598-dc3"  2        0.0        0.0        0.0        0.0     0.0     0.0
"Line.s_1000598-dc4"  1        0.0        0.0        0.0        0.0     0.0     0.0        0.0        0.0        0.0        0.0
"Line.s_1000598-dc4"  2        0.0        0.0        0.0        0.0     0.0     0.0
"Line.s_1000598-dc5"  1        0.0        0.0        0.0        0.0     0.0     0.0        0.0        0.0        0.0        0.0
"Line.s_1000598-dc5"  2        0.0        0.0        0.0        0.0     0.0     0.0
"Line.s_1000598-dc6"  1        0.0        0.0        0.0        0.0     0.0     0.0        0.0        0.0        0.0        0.0
"Line.s_1000598-dc6"  2        0.0        0.0        0.0        0.0     0.0     0.0
"Line.s_1000598-dc7"  1        0.0        0.0        0.0        0.0     0.0     0.0        0.0        0.0        0.0        0.0
"Line.s_1000598-dc7"  2        0.0        0.0        0.0        0.0     0.0     0.0
"Line.s_1000598-dc8"  1        0.0        0.0        0.0        0.0     0.0     0.0        0.0        0.0        0.0        0.0
"Line.s_1000598-dc8"  2        0.0        0.0        0.0        0.0     0.0     0.0
"Line.s_1000598-dc9"  1        0.0        0.0        0.0        0.0     0.0     0.0        0.0        0.0        0.0        0.0
"Line.s_1000598-dc9"  2        0.0        0.0        0.0        0.0     0.0     0.0
"Line.s_1000599-dc1"  1        0.0        0.0        0.0        0.0     0.0     0.0        0.0        0.0        0.0        0.0
"Line.s_1000599-dc1"  2        0.0        0.0        0.0        0.0     0.0     0.0
"Line.s_1000599-dc2"  1        0.0        0.0        0.0        0.0     0.0     0.0        0.0        0.0        0.0        0.0
"Line.s_1000599-dc2"  2        0.0        0.0        0.0        0.0     0.0     0.0
"Line.s_1000599-dc3"  1        0.0        0.0        0.0        0.0     0.0     0.0        0.0        0.0        0.0        0.0
"Line.s_1000599-dc3"  2        0.0        0.0        0.0        0.0     0.0     0.0
"Line.s_1000599-dc4"  1        0.0        0.0        0.0        0.0     0.0     0.0        0.0        0.0        0.0        0.0
"Line.s_1000599-dc4"  2        0.0        0.0        0.0        0.0     0.0     0.0
"Line.s_1000599-dc5"  1        0.0        0.0        0.0        0.0     0.0     0.0        0.0        0.0        0.0        0.0
"Line.s_1000599-dc5"  2        0.0        0.0        0.0        0.0     0.0     0.0
"Line.s_1000599-dc6"  1        0.0        0.0        0.0        0.0     0.0     0.0        0.0        0.0        0.0        0.0
"Line.s_1000599-dc6"  2        0.0        0.0        0.0        0.0     0.0     0.0
"Line.s_1000599-dc7"  1        0.0        0.0        0.0        0.0     0.0     0.0        0.0        0.0        0.0        0.0
"Line.s_1000599-dc7"  2        0.0        0.0        0.0        0.0     0.0     0.0
"Line.s_1000599-dc8"  1        0.0        0.0        0.0        0.0     0.0     0.0        0.0        0.0        0.0        0.0
"Line.s_1000599-dc8"  2        0.0        0.0        0.0        0.0     0.0     0.0
"Line.s_1000599-dc9"  1        0.0        0.0        0.0        0.0     0.0     0.0        0.0        0.0        0.0        0.0
"Line.s_1000599-dc9"  2        0.0        0.0        0.0        0.0     0.0     0.0
"Line.s_1000599-dc10"  1        0.0        0.0        0.0        0.0     0.0     0.0        0.0        0.0        0.0        0.0
"Line.s_1000599-dc10"  2        0.0        0.0        0.0        0.0     0.0     0.0
"Line.s_1000599-dc11"  1        0.0        0.0        0.0        0.0     0.0     0.0        0.0        0.0        0.0        0.0
"Line.s_1000599-dc11"  2        0.0        0.0        0.0        0.0     0.0     0.0
"Line.s_1000600-dc1"  1        0.0        0.0        0.0        0.0     0.0     0.0        0.0        0.0        0.0        0.0
"Line.s_1000600-dc1"  2        0.0        0.0        0.0        0.0     0.0     0.0
"Line.s_1000600-dc2"  1        0.0        0.0        0.0        0.0     0.0     0.0        0.0        0.0        0.0        0.0
"Line.s_1000600-dc2"  2        0.0        0.0        0.0        0.0     0.0     0.0
"Line.s_1000600-dc3"  1        0.0        0.0        0.0        0.0     0.0     0.0        0.0        0.0        0.0        0.0
"Line.s_1000600-dc3"  2        0.0        0.0        0.0        0.0     0.0     0.0
"Line.s_1000600-dc4"  1        0.0        0.0        0.0        0.0     0.0     0.0        0.0        0.0        0.0        0.0
"Line.s_1000600-dc4"  2        0.0        0.0        0.0        0.0     0.0     0.0
"Line.s_1000600-dc5"  1        0.0        0.0        0.0        0.0     0.0     0.0        0.0        0.0        0.0        0.0
"Line.s_1000600-dc5"  2        0.0        0.0        0.0        0.0     0.0     0.0
"Line.s_1000600-dc6"  1        0.0        0.0        0.0        0.0     0.0     0.0        0.0        0.0        0.0        0.0
"Line.s_1000600-dc6"  2        0.0        0.0        0.0        0.0     0.0     0.0
"Line.s_1000600-dc7"  1        0.0        0.0        0.0        0.0     0.0     0.0        0.0        0.0        0.0        0.0
"Line.s_1000600-dc7"  2        0.0        0.0        0.0        0.0     0.0     0.0
"Line.s_1000600-dc8"  1        0.0        0.0        0.0        0.0     0.0     0.0        0.0        0.0        0.0        0.0
"Line.s_1000600-dc8"  2        0.0        0.0        0.0        0.0     0.0     0.0
"Line.s_1000600-dc9"  1        0.0        0.0        0.0        0.0     0.0     0.0        0.0        0.0        0.0        0.0
"Line.s_1000600-dc9"  2        0.0        0.0        0.0        0.0     0.0     0.0
"Line.s_1000602-dc1"  1        0.0        0.0        0.0        0.0     0.0     0.0        0.0        0.0        0.0        0.0
"Line.s_1000602-dc1"  2        0.0        0.0        0.0        0.0     0.0     0.0
"Line.s_1000602-dc2"  1        0.0        0.0        0.0        0.0     0.0     0.0        0.0        0.0        0.0        0.0
"Line.s_1000602-dc2"  2        0.0        0.0        0.0        0.0     0.0     0.0
"Line.s_1000602-dc3"  1        0.0        0.0        0.0        0.0     0.0     0.0        0.0        0.0        0.0        0.0
"Line.s_1000602-dc3"  2        0.0        0.0        0.0        0.0     0.0     0.0
"Line.s_1000602-dc4"  1        0.0        0.0        0.0        0.0     0.0     0.0        0.0        0.0        0.0        0.0
"Line.s_1000602-dc4"  2        0.0        0.0        0.0        0.0     0.0     0.0
"Line.s_1000602-dc5"  1        0.0        0.0        0.0        0.0     0.0     0.0        0.0        0.0        0.0        0.0
"Line.s_1000602-dc5"  2        0.0        0.0        0.0        0.0     0.0     0.0
"Line.s_1000602-dc6"  1        0.0        0.0        0.0        0.0     0.0     0.0        0.0        0.0        0.0        0.0
"Line.s_1000602-dc6"  2        0.0        0.0        0.0        0.0     0.0     0.0
"Line.s_1000602-dc7"  1        0.0        0.0        0.0        0.0     0.0     0.0        0.0        0.0        0.0        0.0
"Line.s_1000602-dc7"  2        0.0        0.0        0.0        0.0     0.0     0.0
"Line.s_1000602-dc8"  1        0.0        0.0        0.0        0.0     0.0     0.0        0.0        0.0        0.0        0.0
"Line.s_1000602-dc8"  2        0.0        0.0        0.0        0.0     0.0     0.0
"Line.s_1000601-dc1"  1        0.0        0.0        0.0        0.0     0.0     0.0        0.0        0.0        0.0        0.0
"Line.s_1000601-dc1"  2        0.0        0.0        0.0        0.0     0.0     0.0
"Line.s_1000601-dc2"  1        0.0        0.0        0.0        0.0     0.0     0.0        0.0        0.0        0.0        0.0
"Line.s_1000601-dc2"  2        0.0        0.0        0.0        0.0     0.0     0.0
"Line.s_1000601-dc3"  1        0.0        0.0        0.0        0.0     0.0     0.0        0.0        0.0        0.0        0.0
"Line.s_1000601-dc3"  2        0.0        0.0        0.0        0.0     0.0     0.0
"Line.s_1000601-dc4"  1        0.0        0.0        0.0        0.0     0.0     0.0        0.0        0.0        0.0        0.0
"Line.s_1000601-dc4"  2        0.0        0.0        0.0        0.0     0.0     0.0
"Line.s_1000601-dc5"  1        0.0        0.0        0.0        0.0     0.0     0.0        0.0        0.0        0.0        0.0
"Line.s_1000601-dc5"  2        0.0        0.0        0.0        0.0     0.0     0.0
"Line.s_1000601-dc6"  1        0.0        0.0        0.0        0.0     0.0     0.0        0.0        0.0        0.0        0.0
"Line.s_1000601-dc6"  2        0.0        0.0        0.0        0.0     0.0     0.0
"Line.s_1000601-dc7"  1        0.0        0.0        0.0        0.0     0.0     0.0        0.0        0.0        0.0        0.0
"Line.s_1000601-dc7"  2        0.0        0.0        0.0        0.0     0.0     0.0
"Line.s_1000601-dc8"  1        0.0        0.0        0.0        0.0     0.0     0.0        0.0        0.0        0.0        0.0
"Line.s_1000601-dc8"  2        0.0        0.0        0.0        0.0     0.0     0.0
"Line.s_1000603-db1"  1        0.0        0.0        0.0        0.0     0.0     0.0        0.0        0.0        0.0        0.0
"Line.s_1000603-db1"  2        0.0        0.0        0.0        0.0     0.0     0.0
"Line.s_1000603-db2"  1        0.0        0.0        0.0        0.0     0.0     0.0        0.0        0.0        0.0        0.0
...